*Heading
*Node
      1,  -19.4642849,         -25.
      2,  -16.7857151,         -25.
      3,       -21.25,         -25.
      4,         -15.,         -25.
      5,       -21.25,      -26.875
      6,       -21.25,       -28.75
      7,       -13.25,       -28.75
      8,       -16.25,       -28.75
      9,       -18.25,       -28.75
     10,       -11.25,       -28.75
     11,  -2.32142854,      -5.3125
     12,  -3.39285707,       -8.125
     13,  -4.10714293,         -10.
     14,  -5.17857122,     -12.8125
     15,        -6.25,      -15.625
     16,  -7.32142878,     -18.4375
     17,  -8.39285755,       -21.25
     18,  -9.10714245,      -23.125
     19,  -10.1785717,     -25.9375
     20,        -1.25,         -2.5
** ... 1323 like lines cut
*Element, type=CPS4, elset=EAll
   1,  316,  529,  311,    3
   2,  529,  316,    5,  146
   3,  315,  702,  146,    5
   4,  631,  702,  322,  321
   5,  787,  631,  630,  147
   6,    9,  320,  620,  630
   7, 1214,  620,  629,  148
   8,  314,    2,  533,  530
   9,  534,  533,    2,  313
  10,  532,  534,  313,  312
  11,  146,  787,  531,  529
  12, 1179,  621,  628,  149
  13,  319,  318,  628,  621
  14,  530,  555,    4,  314
  15,  687,  152,  807, 1259
  16,  641,  647,  337,   18
  17,  779, 1266,  647,  641
  18,   18,  336,  153,  641
  19,  336,   17,  642,  153
  20,  640,  646,  335,  334
** ... 1150 like lines cut
*Solid Section, elset=EAll, material=Material-1
1.0,
*Material, name=Material-1
*Elastic
 1e+06, 0.3
*Step
*Static
1., 1., 1e-05, 1.
*Dload
1, P4, -500.
3, P4, -500.
464, P4, -500.
2, P2, -500.
*Boundary
6, 2, 2, 0.0
7, 2, 2, 0.0
8, 2, 2, 0.0
9, 2, 2, 0.0
10, 2, 2, 0.0
29, 2, 2, 0.0
30, 2, 2, 0.0
31, 2, 2, 0.0
32, 2, 2, 0.0
33, 2, 2, 0.0
317, 2, 2, 0.0
318, 2, 2, 0.0
319, 2, 2, 0.0
320, 2, 2, 0.0
321, 2, 2, 0.0
322, 2, 2, 0.0
358, 2, 2, 0.0
359, 2, 2, 0.0
360, 2, 2, 0.0
361, 2, 2, 0.0
362, 2, 2, 0.0
363, 2, 2, 0.0
33,1,1,0.0
*Cload
105, 1, -5000.
61, 1, 1000.
61, 2, 1000.
*Output, field
*Output, field, variable=PRESELECT
*El Print
s,e
*Node Print
u1,u2
*End Step
