*Heading
A plate problem
*Node
1, 1.0, 1.0
2, -1.0,1.0
3, -1.0,-1.0
4, 1.0, -1.0
**CPE4 is the plane strain quadrilateral element
*Element, type=CPE4, elset=elall
1, 1,2,3,4
*Solid Section, elset=elall, material=steel
1.0
*Material, name=steel
*Elastic
1.0, 0.25
*Boundary
2, 1, 1, 0.0
3, 1, 2, 0.0
4, 2, 2, 0.0
*Step
*Static
1.0, 1., 1e-05, 1.0
*dload
1, P4, 0.1
*Output, field
*Output, field, variable=PRESELECT
*El Print
s,e
*Node Print
u1,u2
*End Step
