*Node
      1,   6.61489344,   22.1607037
      2,   13.6148939,   22.1607037
      3,   6.61489344,         12.5
      4, -0.385106355,   22.1607037
      5,  -28.1903419,   12.8541574
      6,  -35.1879959,   12.8541574
      7,  -28.1926861,   22.1607037
      8,  -21.1926861,   12.8541574
      9,    20.614893,   22.1607037
     10,   13.6148939,   12.8479185
     11,   27.6097622,   12.7692652
     12,   20.6121063,   12.7692652
     13,  -14.1903419,   12.8541574
     14,  -7.19503069,   22.1607037
     15,  -21.1903419,   22.1607037
     16,  -14.1926861,   22.1607037
     17,   37.5631409,   7.77619457
     18,  -45.2598381,   7.77619457
     19,   23.1253014,   27.1607037
     20,  -30.6893806,   27.1607037
** ... 169 like lines cut
*Element, type=CPS3, elset=Eall
  1, 168, 167,   1
  2, 167, 166,  28
  3, 164,  95,  94
  4, 162,  16,  52
  5, 173, 161,  51
  6, 176, 175, 120
  7, 117, 108, 107
  8, 112, 107, 106
  9, 145, 144,   6
 10, 143, 142,   5
 11, 141, 140,   8
 12, 123,  48,  49
 13, 121, 120,  33
 14, 132,  64,  63
 15, 188, 159, 133
 16, 140, 122,   8
 17, 184, 157, 181
 18, 150, 149,  43
 19, 152, 151,  12
 20, 178, 155, 154
** ... 254 like lines cut
** Section: Section-1
*Solid Section, elset=Eall, material=Material-1
1.0,
** MATERIALS
**
*Material, name=Material-1
*Elastic
 2.3e+11,0.
*density
1000
**
** STEP: Step-1
**
*Step, name=Step-1
*Frequency
5
**
** BOUNDARY CONDITIONS
**
*Boundary
17, 1, 2, 0.0
18, 1, 2, 0.0
**

** OUTPUT REQUESTS
**
*Output, field, variable=PRESELECT
**
*End Step
