**plate1.inp
*Heading
A plate problem
*Node
1, 3, 0
2, 3,2
3, 0,2
4, 0, 0
**CPS3 is the plane stress triangular element
*Element, type=CPS3, elset=elall
1, 1,2,4
2, 2,3,4
*Solid Section, elset=elall, material=steel
0.5
*Material, name=steel
*Elastic
30e+6, 0.25
*density
1000
*Boundary
1, 2, 2, 0.0
3, 1, 2, 0.0
4, 1, 2, 0.0
*Step
*Frequency
3
*Output, field
*Output, field, variable=PRESELECT
*El Print
s,e
*Node Print
u1,u2
*End Step
