*Heading
*Node
      1,          0.5,  0.949999988
      2,          0.5,         1.25
      3,          0.5,   1.70000005
      4,          0.5,          0.5
      5,          0.5,           2.
      6,     0.921875,   2.16875005
      7,      1.34375,    2.3375001
      8,     1.765625,    2.5062499
      9,       2.1875,   2.67499995
     10,     2.609375,      2.84375
     11,     2.890625,   2.95624995
     12,       3.3125,        3.125
     13,     3.734375,   3.29375005
     14,      4.15625,    3.4625001
     15,     4.578125,    3.6312499
     16,           5.,   3.79999995
     17,     5.421875,    3.6312499
     18,      5.84375,    3.4625001
     19,     6.265625,   3.29375005
     20,       6.6875,        3.125
** ... 557 like lines cut
*Element, type=CPS4, elset= EAll
  1,  51, 245, 352, 363
  2, 529, 521, 145, 356
  3,   3, 154, 145, 521
  4,   5, 107, 350, 429
  5, 348, 349, 155, 156
  6, 106, 348, 156,   6
  7, 152, 444, 144,   2
  8, 529, 444, 152, 153
  9,   6, 157, 347, 106
 10, 345, 105,   7, 159
 11, 104, 344, 160,   8
 12,   8, 161, 343, 104
 13, 161, 162, 342, 343
 14,   9, 163, 341, 103
 15, 163, 164, 340, 341
 16, 159, 160, 344, 345
 17, 157, 158, 346, 347
 18,  10, 165, 339, 102
 19, 167,  12, 336, 337
 20,  12, 168, 100, 336
** ... 402 like lines cut
*Solid Section, elset=EAll, material=Material-1
1.0,
*Material, name=Material-1
*Elastic
 2e+10, 0.3
*Step, name=Step-1
*Static
1., 1., 1e-05, 1.
*Boundary
56, 1, 2,0.0
57, 1, 2,0.0
58, 1, 2,0.0
59, 1, 2,0.0
60, 1, 2,0.0
61, 1, 2,0.0
62, 1, 2,0.0
63, 1, 2,0.0
64, 1, 2,0.0
65, 1, 2,0.0
66, 1, 2,0.0
67, 1, 2,0.0
68, 1, 2,0.0
69, 1, 2,0.0
70, 1, 2,0.0
71, 1, 2,0.0
72, 1, 2,0.0
73, 1, 2,0.0
74, 1, 2,0.0
75, 1, 2,0.0
** ... 48 like lines cut
*Cload
96, 1, 5e+07
*Output, field
*Output, field, variable=PRESELECT
*El Print
s,e
*Node Print
u1,u2
*End Step
