*Heading
*Node
      1,   68.1458969,    64.293663
      2,   66.4732895,   65.1458969
      3,   65.1458969,   66.4732895
      4,    64.293663,   68.1458969
      5,          70.,          64.
      6,          64.,          70.
      7,          62.,          70.
      8,   61.6381569,    67.947876
      9,   60.5962677,   66.1432724
     10,          59.,   64.8038483
     11,   57.0418892,    64.091156
     12,   54.9581108,    64.091156
     13,          53.,   64.8038483
     14,   51.4037323,   66.1432724
     15,   50.3618431,    67.947876
     16,          50.,          70.
     17,          48.,          70.
     18,   47.6381569,    67.947876
     19,   46.5962677,   66.1432724
     20,          45.,   64.8038483
** ... 817 like lines cut
*Element, type=CPS4, elset=EAll
  1, 188,   5,   1, 187
  2, 187, 511, 690, 186
  3,   3, 509, 660,   2
  4, 205, 206, 790, 597
  5, 204, 205, 597, 516
  6, 538, 185, 681, 790
  7,   4,   6,   7,   8
  8,   4,   8, 509,   3
  9,  11, 204, 516,  10
 10, 203, 204,  11,  12
 11, 202, 203,  12, 788
 12, 685, 832, 728, 739
 13, 285, 598, 550, 284
 14,  14,  15, 661, 674
 15, 795,  18,  19, 739
 16,  15,  16,  17,  18
 17, 787, 598, 285, 286
 18, 599, 201, 517, 789
 19, 518, 287, 199, 200
 20, 287, 288, 198, 199
** ... 578 like lines cut
*Solid Section, elset=EAll, material=Material-1
1.0, 
*Material, name=Material-1
*Elastic
3., 0.49
*Step, name=Step-1, inc=100000
*Static
1.0, 1., 1e-28, 1.0
*Boundary
102, 1, 2, 0.0
103,1, 2, 0.0
112, 1, 2, 0.0
113,1, 2, 0.0
122, 1, 2, 0.0
123,1, 2, 0.0
132, 1, 2, 0.0
133,1, 2, 0.0
142, 1, 2, 0.0
143,1, 2, 0.0
46,1,1,8.0
46,2,2,0.0
47,1,1,8.0
47,2,2,0.0
36,1,1,8.0
36,2,2,0.0
37,1,1,8.0
37,2,2,0.0
26,1,1,8.0
26,2,2,0.0
** ... 10 like lines cut
*Output, field
*Output, field, variable=PRESELECT
*El Print
s,e
*Node Print
u1,u2
*End Step
