*Node
      1, -0.00509000011, 0.00203000009
      2, -0.00103000004, 0.00203000009
      3, -0.00306000002, 0.00406000018
      4, -0.00509000011, 0.00608999981
      5, -0.00103000004, 0.00608999981
      6, -0.00306000002, 0.00812000036
      7, -0.00509000011, 0.0101500005
      8, -0.00103000004, 0.0101500005
      9, -0.00306000002, 0.0121799996
     10, -0.00509000011, 0.0142099997
     11, -0.00103000004, 0.0142099997
     12, -0.00306000002, 0.0162400007
     13, -0.00509000011, 0.0182700008
     14, -0.00103000004, 0.0182700008
     15, -0.00306000002, 0.0203000009
     16, -0.00509000011, 0.0223299991
     17, -0.00103000004, 0.0223299991
     18, -0.00306000002, 0.0243599992
     19, -0.00509000011, 0.0263899993
     20, -0.00103000004, 0.0263899993
** ... 4245 like lines cut
*Element, type=CPE3, Elset=Eall
   1, 2350,   71,  664
   2, 2579,  663, 2432
   3, 2834, 2747, 2159
   4,  659, 2158,  658
   5, 2410,  659,  660
   6, 2410,  660, 2354
   7, 2410, 2354, 2159
   8,  662, 2159,  661
   9, 2579, 2432, 1998
  10,  227, 1967,  226
  11, 2350,  227,  228
  12, 2350,  228, 1999
  13, 1999,  228,  229
  14, 1998,  229,  230
  15, 2835, 2278,  655
  16, 2487, 2251,  233
  17,  653, 1996,  652
  18, 2278, 2251,  654
  19, 1997,  655,  656
  20, 2747, 2392, 2158
** ... 6738 like lines cut
** Section: Section-1
*Solid Section, elset=Eall, material=Material-1
1.0,
**  
*Material, name=Material-1
*Elastic
 1e+06, 0.499
*Step, name=Step-1
*Static
1., 1., 1e-05, 1.
** 
** BOUNDARY CONDITIONS
** 
*Boundary
69, 1, 2, 0.0
70, 1, 2, 0.0
72, 1, 2, 0.0
73, 1, 2, 0.0
74, 1, 2, 0.0
75, 1, 2, 0.0
77, 1, 2, 0.0
78, 1, 2, 0.0
135, 1, 2, 0.0
136, 1, 2, 0.0
138, 1, 2, 0.0
139, 1, 2, 0.0
140, 1, 2, 0.0
141, 1, 2, 0.0
143, 1, 2, 0.0
144, 1, 2, 0.0
24, 1, 1, 0.0
25, 1, 1, 0.0
26, 1, 1, 0.0
27, 1, 1, 0.0
** ... 28 like lines cut
** 
** OUTPUT REQUESTS
** 
*Output, field, variable=PRESELECT
*End Step
